/*--------------------------------*- C++ -*----------------------------------*\
| =========                 |                                                 |
| \\      /  F ield         | OpenFOAM: The Open Source CFD Toolbox           |
|  \\    /   O peration     | Version:  2.1.0                                 |
|   \\  /    A nd           | Web:      www.OpenFOAM.org                      |
|    \\/     M anipulation  |                                                 |
\*---------------------------------------------------------------------------*/
FoamFile
{
    version     2.0;
    format      ascii;
    class       featureEdgeMesh;
    location    "constant/triSurface";
    object      rotorX.eMesh;
}
// * * * * * * * * * * * * * * * * * * * * * * * * * * * * * * * * * * * * * //


// points:

11550
(
(-2.00000000000000e-02 -3.44509284839767e-18 -1.00000000000000e-02)
(-2.00000000000000e-02 -2.22044604925031e-18 1.00000000000000e-02)
(1.50000000000000e-02 4.40687737790382e-19 -1.00000000000000e-02)
(1.50000000000000e-02 1.66533453693773e-18 1.00000000000000e-02)
(-1.01924946583003e-02 -6.96369835815936e-03 7.17683113752641e-03)
(9.24423603314804e-03 4.66528252937815e-03 8.84506296874583e-03)
(5.98984156235266e-03 1.83774162958088e-02 4.65003203128130e-02)
(-5.80725571871226e-03 -1.78427014940901e-02 4.67080130629701e-02)
(1.50000000000000e-02 -1.00000000000000e-02 0.00000000000000e+00)
(1.50000000000000e-02 1.00000000000000e-02 0.00000000000000e+00)
(1.50000000000000e-02 6.39228607174383e-18 -9.99999999999999e-03)
(1.50000000000000e-02 1.00000000000000e-02 0.00000000000000e+00)
(1.50000000000000e-02 -1.00000000000000e-02 0.00000000000000e+00)
(1.50000000000000e-02 1.72254642419881e-18 9.99999999999999e-03)
(-1.01924946583003e-02 6.96369835815939e-03 -7.17683113752638e-03)
(9.24423603314803e-03 -4.66528252937813e-03 -8.84506296874586e-03)
(5.98984156235266e-03 -1.83774162958088e-02 -4.65003203128130e-02)
(-5.80725571871221e-03 1.78427014940902e-02 -4.67080130629701e-02)
(9.24423603314804e-03 -8.84506296874586e-03 4.66528252937811e-03)
(-1.01924946583003e-02 -7.17683113752637e-03 -6.96369835815939e-03)
(-5.80725571871225e-03 -4.67080130629700e-02 -1.78427014940903e-02)
(5.98984156235262e-03 -4.65003203128130e-02 1.83774162958087e-02)
(9.24423603314804e-03 8.84506296874584e-03 -4.66528252937815e-03)
(-1.01924946583002e-02 7.17683113752640e-03 6.96369835815938e-03)
(-5.80725571871221e-03 4.67080130629701e-02 1.78427014940901e-02)
(5.98984156235269e-03 4.65003203128129e-02 -1.83774162958089e-02)
(-2.00000000000000e-02 -9.97314467649297e-05 -9.99950266955943e-03)
(-2.00000000000000e-02 -1.99452973632988e-04 -9.99801072770523e-03)
(-2.00000000000000e-02 -2.99154661693996e-04 -9.99552432283503e-03)
(-2.00000000000000e-02 -3.98826594011065e-04 -9.99204370226179e-03)
(-2.00000000000000e-02 -4.98458856606991e-04 -9.98756921218922e-03)
(-2.00000000000000e-02 -5.98041539450365e-04 -9.98210129767735e-03)
(-2.00000000000000e-02 -6.97564737441280e-04 -9.97564050259824e-03)
(-2.00000000000000e-02 -7.97018551396556e-04 -9.96818746958191e-03)
(-2.00000000000000e-02 -8.96393089034370e-04 -9.95974293995239e-03)
(-2.00000000000000e-02 -9.95678465958205e-04 -9.95030775365401e-03)
(-2.00000000000000e-02 -1.09486480664001e-03 -9.93988284916785e-03)
(-2.00000000000000e-02 -1.19394224540249e-03 -9.92846926341837e-03)
(-2.00000000000000e-02 -1.29290092740038e-03 -9.91606813167030e-03)
(-2.00000000000000e-02 -1.39173100960071e-03 -9.90268068741570e-03)
(-2.00000000000000e-02 -1.49042266176180e-03 -9.88830826225128e-03)
(-2.00000000000000e-02 -1.58896606741109e-03 -9.87295228574595e-03)
(-2.00000000000000e-02 -1.68735142482152e-03 -9.85661428529862e-03)
(-2.00000000000000e-02 -1.78556894798644e-03 -9.83929588598628e-03)
(-2.00000000000000e-02 -1.88360886759304e-03 -9.82099881040237e-03)
(-2.00000000000000e-02 -1.98146143199405e-03 -9.80172487848542e-03)
(-2.00000000000000e-02 -2.07911690817767e-03 -9.78147600733804e-03)
(-2.00000000000000e-02 -2.17656558273571e-03 -9.76025421103623e-03)
(-2.00000000000000e-02 -2.27379776282970e-03 -9.73806160042904e-03)
(-2.00000000000000e-02 -2.37080377715507e-03 -9.71490038292865e-03)
(-2.00000000000000e-02 -2.46757397690303e-03 -9.69077286229075e-03)
(-2.00000000000000e-02 -2.56409873672038e-03 -9.66568143838545e-03)
(-2.00000000000000e-02 -2.66036845566685e-03 -9.63962860695851e-03)
(-2.00000000000000e-02 -2.75637355817010e-03 -9.61261695938316e-03)
(-2.00000000000000e-02 -2.85210449497813e-03 -9.58464918240232e-03)
(-2.00000000000000e-02 -2.94755174410916e-03 -9.55572805786137e-03)
(-2.00000000000000e-02 -3.04270581179868e-03 -9.52585646243143e-03)
(-2.00000000000000e-02 -3.13755723344382e-03 -9.49503736732323e-03)
(-2.00000000000000e-02 -3.23209657454472e-03 -9.46327383799160e-03)
(-2.00000000000000e-02 -3.32631443164295e-03 -9.43056903383056e-03)
(-2.00000000000000e-02 -3.42020143325682e-03 -9.39692620785904e-03)
(-2.00000000000000e-02 -3.51374824081356e-03 -9.36234870639732e-03)
(-2.00000000000000e-02 -3.60694554957817e-03 -9.32683996873422e-03)
(-2.00000000000000e-02 -3.69978408957893e-03 -9.29040352678497e-03)
(-2.00000000000000e-02 -3.79225462652943e-03 -9.25304300473991e-03)
(-2.00000000000000e-02 -3.88434796274709e-03 -9.21476211870402e-03)
(-2.00000000000000e-02 -3.97605493806803e-03 -9.17556467632727e-03)
(-2.00000000000000e-02 -4.06736643075815e-03 -9.13545457642594e-03)
(-2.00000000000000e-02 -4.15827335842048e-03 -9.09443580859475e-03)
(-2.00000000000000e-02 -4.24876667889854e-03 -9.05251245281007e-03)
(-2.00000000000000e-02 -4.33883739117574e-03 -9.00968867902411e-03)
(-2.00000000000000e-02 -4.42847653627068e-03 -8.96596874675013e-03)
(-2.00000000000000e-02 -4.51767519812825e-03 -8.92135700463875e-03)
(-2.00000000000000e-02 -4.60642450450649e-03 -8.87585789004545e-03)
(-2.00000000000000e-02 -4.69471562785908e-03 -8.82947592858918e-03)
(-2.00000000000000e-02 -4.78253978621336e-03 -8.78221573370219e-03)
(-2.00000000000000e-02 -4.86988824404385e-03 -8.73408200617120e-03)
(-2.00000000000000e-02 -4.95675231314115e-03 -8.68507953366979e-03)
(-2.00000000000000e-02 -5.04312335347612e-03 -8.63521319028220e-03)
(-2.00000000000000e-02 -5.12899277405924e-03 -8.58448793601855e-03)
(-2.00000000000000e-02 -5.21435203379517e-03 -8.53290881632144e-03)
(-2.00000000000000e-02 -5.29919264233224e-03 -8.48048096156414e-03)
(-2.00000000000000e-02 -5.38350616090701e-03 -8.42720958654027e-03)
(-2.00000000000000e-02 -5.46728420318363e-03 -8.37309998994511e-03)
(-2.00000000000000e-02 -5.55051843608794e-03 -8.31815755384856e-03)
(-2.00000000000000e-02 -5.63320058063642e-03 -8.26238774315982e-03)
(-2.00000000000000e-02 -5.71532241275957e-03 -8.20579610508378e-03)
(-2.00000000000000e-02 -5.79687576412002e-03 -8.14838826856931e-03)
(-2.00000000000000e-02 -5.87785252292493e-03 -8.09016994374933e-03)
(-2.00000000000000e-02 -5.95824463473288e-03 -8.03114692137287e-03)
(-2.00000000000000e-02 -6.03804410325498e-03 -7.97132507222907e-03)
(-2.00000000000000e-02 -6.11724299115027e-03 -7.91071034656326e-03)
(-2.00000000000000e-02 -6.19583342081519e-03 -7.84930877348506e-03)
(-2.00000000000000e-02 -6.27380757516713e-03 -7.78712646036877e-03)
(-2.00000000000000e-02 -6.35115769842200e-03 -7.72416959224582e-03)
(-2.00000000000000e-02 -6.42787609686561e-03 -7.66044443118960e-03)
(-2.00000000000000e-02 -6.50395513961898e-03 -7.59595731569260e-03)
(-2.00000000000000e-02 -6.57938725939734e-03 -7.53071466003592e-03)
(-2.00000000000000e-02 -6.65416495326283e-03 -7.46472295365131e-03)
(-2.00000000000000e-02 -6.72828078337075e-03 -7.39798876047565e-03)
(-2.00000000000000e-02 -6.80172737770941e-03 -7.33051871829806e-03)
(-2.00000000000000e-02 -6.87449743083340e-03 -7.26231953809973e-03)
(-2.00000000000000e-02 -6.94658370459019e-03 -7.19339800338630e-03)
(-2.00000000000000e-02 -7.01797902884013e-03 -7.12376096951323e-03)
(-2.00000000000000e-02 -7.08867630216961e-03 -7.05341536300387e-03)
(-2.00000000000000e-02 -7.15866849259741e-03 -6.98236818086051e-03)
(-2.00000000000000e-02 -7.22794863827414e-03 -6.91062648986842e-03)
(-2.00000000000000e-02 -7.29650984817473e-03 -6.83819742589297e-03)
(-2.00000000000000e-02 -7.36434530278384e-03 -6.76508819316981e-03)
(-2.00000000000000e-02 -7.43144825477416e-03 -6.69130606358834e-03)
(-2.00000000000000e-02 -7.49781202967756e-03 -6.61685837596834e-03)
(-2.00000000000000e-02 -7.56343002654896e-03 -6.54175253533009e-03)
(-2.00000000000000e-02 -7.62829571862289e-03 -6.46599601215774e-03)
(-2.00000000000000e-02 -7.69240265396271e-03 -6.38959634165630e-03)
(-2.00000000000000e-02 -7.75574445610235e-03 -6.31256112300212e-03)
(-2.00000000000000e-02 -7.81831482468052e-03 -6.23489801858706e-03)
(-2.00000000000000e-02 -7.88010753606744e-03 -6.15661475325630e-03)
(-2.00000000000000e-02 -7.94111644398383e-03 -6.07771911354001e-03)
(-2.00000000000000e-02 -8.00133548011228e-03 -5.99821894687885e-03)
(-2.00000000000000e-02 -8.06075865470084e-03 -5.91812216084338e-03)
(-2.00000000000000e-02 -8.11938005715879e-03 -5.83743672234760e-03)
(-2.00000000000000e-02 -8.17719385664453e-03 -5.75617065685643e-03)
(-2.00000000000000e-02 -8.23419430264561e-03 -5.67433204758751e-03)
(-2.00000000000000e-02 -8.29037572555063e-03 -5.59192903470715e-03)
(-2.00000000000000e-02 -8.34573253721324e-03 -5.50896981452070e-03)
(-2.00000000000000e-02 -8.40025923150793e-03 -5.42546263865727e-03)
(-2.00000000000000e-02 -8.45395038487771e-03 -5.34141581324895e-03)
(-2.00000000000000e-02 -8.50680065687361e-03 -5.25683769810471e-03)
(-2.00000000000000e-02 -8.55880479068580e-03 -5.17173670587878e-03)
(-2.00000000000000e-02 -8.60995761366652e-03 -5.08612130123397e-03)
(-2.00000000000000e-02 -8.66025403784459e-03 -4.99999999999964e-03)
(-2.00000000000000e-02 -8.70968906043145e-03 -4.91338136832475e-03)
(-2.00000000000000e-02 -8.75825776431877e-03 -4.82627402182574e-03)
(-2.00000000000000e-02 -8.80595531856758e-03 -4.73868662472961e-03)
(-2.00000000000000e-02 -8.85277697888875e-03 -4.65062788901213e-03)
(-2.00000000000000e-02 -8.89871808811489e-03 -4.56210657353125e-03)
(-2.00000000000000e-02 -8.94377407666357e-03 -4.47313148315594e-03)
(-2.00000000000000e-02 -8.98794046299187e-03 -4.38371146789038e-03)
(-2.00000000000000e-02 -9.03121285404211e-03 -4.29385542199369e-03)
(-2.00000000000000e-02 -9.07358694567884e-03 -4.20357228309525e-03)
(-2.00000000000000e-02 -9.11505852311692e-03 -4.11287103130570e-03)
(-2.00000000000000e-02 -9.15562346134078e-03 -4.02176068832376e-03)
(-2.00000000000000e-02 -9.19527772551469e-03 -3.93025031653881e-03)
(-2.00000000000000e-02 -9.23401737138412e-03 -3.83834901812958e-03)
(-2.00000000000000e-02 -9.27183854566805e-03 -3.74606593415869e-03)
(-2.00000000000000e-02 -9.30873748644222e-03 -3.65341024366351e-03)
(-2.00000000000000e-02 -9.34471052351333e-03 -3.56039116274312e-03)
(-2.00000000000000e-02 -9.37975407878411e-03 -3.46701794364162e-03)
(-2.00000000000000e-02 -9.41386466660920e-03 -3.37329987382785e-03)
(-2.00000000000000e-02 -9.44703889414187e-03 -3.27924627507158e-03)
(-2.00000000000000e-02 -9.47927346167148e-03 -3.18486650251638e-03)
(-2.00000000000000e-02 -9.51056516295169e-03 -3.09016994374900e-03)
(-2.00000000000000e-02 -9.54091088551939e-03 -2.99516601786572e-03)
(-2.00000000000000e-02 -9.57030761100427e-03 -2.89986417453538e-03)
(-2.00000000000000e-02 -9.59875241542904e-03 -2.80427389305954e-03)
(-2.00000000000000e-02 -9.62624246950026e-03 -2.70840468142956e-03)
(-2.00000000000000e-02 -9.65277503888981e-03 -2.61226607538089e-03)
(-2.00000000000000e-02 -9.67834748450680e-03 -2.51586763744458e-03)
(-2.00000000000000e-02 -9.70295726276009e-03 -2.41921895599617e-03)
(-2.00000000000000e-02 -9.72660192581132e-03 -2.32232964430191e-03)
(-2.00000000000000e-02 -9.74927912181836e-03 -2.22520933956263e-03)
(-2.00000000000000e-02 -9.77098659516921e-03 -2.12786770195510e-03)
(-2.00000000000000e-02 -9.79172218670643e-03 -2.03031441367123e-03)
(-2.00000000000000e-02 -9.81148383394183e-03 -1.93255917795500e-03)
(-2.00000000000000e-02 -9.83026957126168e-03 -1.83461171813729e-03)
(-2.00000000000000e-02 -9.84807753012218e-03 -1.73648177666876e-03)
(-2.00000000000000e-02 -9.86490593923531e-03 -1.63817911415083e-03)
(-2.00000000000000e-02 -9.88075312474505e-03 -1.53971350836478e-03)
(-2.00000000000000e-02 -9.89561751039385e-03 -1.44109475329925e-03)
(-2.00000000000000e-02 -9.90949761767942e-03 -1.34233265817599e-03)
(-2.00000000000000e-02 -9.92239206600179e-03 -1.24343704647429e-03)
(-2.00000000000000e-02 -9.93429957280062e-03 -1.14441775495375e-03)
(-2.00000000000000e-02 -9.94521895368280e-03 -1.04528463267596e-03)
(-2.00000000000000e-02 -9.95514912254021e-03 -9.46047540024793e-04)
(-2.00000000000000e-02 -9.96408909165781e-03 -8.46716347725649e-04)
(-2.00000000000000e-02 -9.97203797181185e-03 -7.47300935863655e-04)
(-2.00000000000000e-02 -9.97899497235830e-03 -6.47811192900927e-04)
(-2.00000000000000e-02 -9.98495940131155e-03 -5.48257014693004e-04)
(-2.00000000000000e-02 -9.98993066541318e-03 -4.48648303504549e-04)
(-2.00000000000000e-02 -9.99390827019098e-03 -3.48994967024405e-04)
(-2.00000000000000e-02 -9.99689182000818e-03 -2.49306917380120e-04)
(-2.00000000000000e-02 -9.99888101810274e-03 -1.49594070152024e-04)
(-2.00000000000000e-02 -9.99987566661692e-03 -4.98663433869638e-05)
(-2.00000000000000e-02 -9.99987566661692e-03 4.98663433882011e-05)
(-2.00000000000000e-02 -9.99888101810273e-03 1.49594070153261e-04)
(-2.00000000000000e-02 -9.99689182000815e-03 2.49306917381357e-04)
(-2.00000000000000e-02 -9.99390827019094e-03 3.48994967025642e-04)
(-2.00000000000000e-02 -9.98993066541312e-03 4.48648303505785e-04)
(-2.00000000000000e-02 -9.98495940131149e-03 5.48257014694240e-04)
(-2.00000000000000e-02 -9.97899497235822e-03 6.47811192902161e-04)
(-2.00000000000000e-02 -9.97203797181175e-03 7.47300935864889e-04)
(-2.00000000000000e-02 -9.96408909165771e-03 8.46716347726882e-04)
(-2.00000000000000e-02 -9.95514912254009e-03 9.46047540026025e-04)
(-2.00000000000000e-02 -9.94521895368267e-03 1.04528463267719e-03)
(-2.00000000000000e-02 -9.93429957280048e-03 1.14441775495498e-03)
(-2.00000000000000e-02 -9.92239206600164e-03 1.24343704647551e-03)
(-2.00000000000000e-02 -9.90949761767926e-03 1.34233265817722e-03)
(-2.00000000000000e-02 -9.89561751039367e-03 1.44109475330047e-03)
(-2.00000000000000e-02 -9.88075312474486e-03 1.53971350836601e-03)
(-2.00000000000000e-02 -9.86490593923510e-03 1.63817911415205e-03)
(-2.00000000000000e-02 -9.84807753012196e-03 1.73648177666998e-03)
(-2.00000000000000e-02 -9.83026957126146e-03 1.83461171813850e-03)
(-2.00000000000000e-02 -9.81148383394159e-03 1.93255917795622e-03)
(-2.00000000000000e-02 -9.79172218670617e-03 2.03031441367245e-03)
(-2.00000000000000e-02 -9.77098659516895e-03 2.12786770195631e-03)
(-2.00000000000000e-02 -9.74927912181808e-03 2.22520933956383e-03)
(-2.00000000000000e-02 -9.72660192581104e-03 2.32232964430312e-03)
(-2.00000000000000e-02 -9.70295726275979e-03 2.41921895599737e-03)
(-2.00000000000000e-02 -9.67834748450649e-03 2.51586763744578e-03)
(-2.00000000000000e-02 -9.65277503888949e-03 2.61226607538208e-03)
(-2.00000000000000e-02 -9.62624246949993e-03 2.70840468143075e-03)
(-2.00000000000000e-02 -9.59875241542869e-03 2.80427389306073e-03)
(-2.00000000000000e-02 -9.57030761100391e-03 2.89986417453657e-03)
(-2.00000000000000e-02 -9.54091088551902e-03 2.99516601786690e-03)
(-2.00000000000000e-02 -9.51056516295131e-03 3.09016994375018e-03)
(-2.00000000000000e-02 -9.47927346167108e-03 3.18486650251755e-03)
(-2.00000000000000e-02 -9.44703889414146e-03 3.27924627507275e-03)
(-2.00000000000000e-02 -9.41386466660878e-03 3.37329987382901e-03)
(-2.00000000000000e-02 -9.37975407878368e-03 3.46701794364278e-03)
(-2.00000000000000e-02 -9.34471052351288e-03 3.56039116274428e-03)
(-2.00000000000000e-02 -9.30873748644176e-03 3.65341024366466e-03)
(-2.00000000000000e-02 -9.27183854566759e-03 3.74606593415983e-03)
(-2.00000000000000e-02 -9.23401737138365e-03 3.83834901813072e-03)
(-2.00000000000000e-02 -9.19527772551420e-03 3.93025031653995e-03)
(-2.00000000000000e-02 -9.15562346134028e-03 4.02176068832489e-03)
(-2.00000000000000e-02 -9.11505852311641e-03 4.11287103130683e-03)
(-2.00000000000000e-02 -9.07358694567832e-03 4.20357228309637e-03)
(-2.00000000000000e-02 -9.03121285404158e-03 4.29385542199481e-03)
(-2.00000000000000e-02 -8.98794046299132e-03 4.38371146789149e-03)
(-2.00000000000000e-02 -8.94377407666301e-03 4.47313148315704e-03)
(-2.00000000000000e-02 -8.89871808811432e-03 4.56210657353235e-03)
(-2.00000000000000e-02 -8.85277697888818e-03 4.65062788901322e-03)
(-2.00000000000000e-02 -8.80595531856700e-03 4.73868662473070e-03)
(-2.00000000000000e-02 -8.75825776431817e-03 4.82627402182683e-03)
(-2.00000000000000e-02 -8.70968906043084e-03 4.91338136832583e-03)
(-2.00000000000000e-02 -8.66025403784398e-03 5.00000000000072e-03)
(-2.00000000000000e-02 -8.60995761366590e-03 5.08612130123503e-03)
(-2.00000000000000e-02 -8.55880479068516e-03 5.17173670587984e-03)
(-2.00000000000000e-02 -8.50680065687296e-03 5.25683769810576e-03)
(-2.00000000000000e-02 -8.45395038487705e-03 5.34141581325000e-03)
(-2.00000000000000e-02 -8.40025923150726e-03 5.42546263865830e-03)
(-2.00000000000000e-02 -8.34573253721256e-03 5.50896981452173e-03)
(-2.00000000000000e-02 -8.29037572554994e-03 5.59192903470818e-03)
(-2.00000000000000e-02 -8.23419430264491e-03 5.67433204758852e-03)
(-2.00000000000000e-02 -8.17719385664382e-03 5.75617065685744e-03)
(-2.00000000000000e-02 -8.11938005715806e-03 5.83743672234860e-03)
(-2.00000000000000e-02 -8.06075865470011e-03 5.91812216084438e-03)
(-2.00000000000000e-02 -8.00133548011154e-03 5.99821894687984e-03)
(-2.00000000000000e-02 -7.94111644398308e-03 6.07771911354099e-03)
(-2.00000000000000e-02 -7.88010753606668e-03 6.15661475325728e-03)
(-2.00000000000000e-02 -7.81831482467975e-03 6.23489801858803e-03)
(-2.00000000000000e-02 -7.75574445610156e-03 6.31256112300308e-03)
(-2.00000000000000e-02 -7.69240265396192e-03 6.38959634165725e-03)
(-2.00000000000000e-02 -7.62829571862209e-03 6.46599601215868e-03)
(-2.00000000000000e-02 -7.56343002654815e-03 6.54175253533103e-03)
(-2.00000000000000e-02 -7.49781202967674e-03 6.61685837596927e-03)
(-2.00000000000000e-02 -7.43144825477334e-03 6.69130606358926e-03)
(-2.00000000000000e-02 -7.36434530278300e-03 6.76508819317072e-03)
(-2.00000000000000e-02 -7.29650984817388e-03 6.83819742589387e-03)
(-2.00000000000000e-02 -7.22794863827328e-03 6.91062648986931e-03)
(-2.00000000000000e-02 -7.15866849259654e-03 6.98236818086139e-03)
(-2.00000000000000e-02 -7.08867630216874e-03 7.05341536300475e-03)
(-2.00000000000000e-02 -7.01797902883925e-03 7.12376096951410e-03)
(-2.00000000000000e-02 -6.94658370458930e-03 7.19339800338716e-03)
(-2.00000000000000e-02 -6.87449743083250e-03 7.26231953810058e-03)
(-2.00000000000000e-02 -6.80172737770851e-03 7.33051871829891e-03)
(-2.00000000000000e-02 -6.72828078336983e-03 7.39798876047648e-03)
(-2.00000000000000e-02 -6.65416495326190e-03 7.46472295365214e-03)
(-2.00000000000000e-02 -6.57938725939641e-03 7.53071466003674e-03)
(-2.00000000000000e-02 -6.50395513961804e-03 7.59595731569341e-03)
(-2.00000000000000e-02 -6.42787609686466e-03 7.66044443119040e-03)
(-2.00000000000000e-02 -6.35115769842104e-03 7.72416959224661e-03)
(-2.00000000000000e-02 -6.27380757516617e-03 7.78712646036955e-03)
(-2.00000000000000e-02 -6.19583342081422e-03 7.84930877348583e-03)
(-2.00000000000000e-02 -6.11724299114929e-03 7.91071034656401e-03)
(-2.00000000000000e-02 -6.03804410325399e-03 7.97132507222982e-03)
(-2.00000000000000e-02 -5.95824463473188e-03 8.03114692137361e-03)
(-2.00000000000000e-02 -5.87785252292393e-03 8.09016994375006e-03)
(-2.00000000000000e-02 -5.79687576411902e-03 8.14838826857003e-03)
(-2.00000000000000e-02 -5.71532241275856e-03 8.20579610508449e-03)
(-2.00000000000000e-02 -5.63320058063539e-03 8.26238774316051e-03)
(-2.00000000000000e-02 -5.55051843608691e-03 8.31815755384925e-03)
(-2.00000000000000e-02 -5.46728420318259e-03 8.37309998994579e-03)
(-2.00000000000000e-02 -5.38350616090597e-03 8.42720958654094e-03)
(-2.00000000000000e-02 -5.29919264233119e-03 8.48048096156480e-03)
(-2.00000000000000e-02 -5.21435203379411e-03 8.53290881632209e-03)
(-2.00000000000000e-02 -5.12899277405818e-03 8.58448793601919e-03)
(-2.00000000000000e-02 -5.04312335347505e-03 8.63521319028283e-03)
(-2.00000000000000e-02 -4.95675231314008e-03 8.68507953367040e-03)
(-2.00000000000000e-02 -4.86988824404277e-03 8.73408200617180e-03)
(-2.00000000000000e-02 -4.78253978621227e-03 8.78221573370278e-03)
(-2.00000000000000e-02 -4.69471562785799e-03 8.82947592858976e-03)
(-2.00000000000000e-02 -4.60642450450539e-03 8.87585789004603e-03)
(-2.00000000000000e-02 -4.51767519812715e-03 8.92135700463931e-03)
(-2.00000000000000e-02 -4.42847653626957e-03 8.96596874675068e-03)
(-2.00000000000000e-02 -4.33883739117463e-03 9.00968867902465e-03)
(-2.00000000000000e-02 -4.24876667889742e-03 9.05251245281060e-03)
(-2.00000000000000e-02 -4.15827335841936e-03 9.09443580859527e-03)
(-2.00000000000000e-02 -4.06736643075702e-03 9.13545457642645e-03)
(-2.00000000000000e-02 -3.97605493806690e-03 9.17556467632777e-03)
(-2.00000000000000e-02 -3.88434796274595e-03 9.21476211870450e-03)
(-2.00000000000000e-02 -3.79225462652828e-03 9.25304300474038e-03)
(-2.00000000000000e-02 -3.69978408957778e-03 9.29040352678543e-03)
(-2.00000000000000e-02 -3.60694554957702e-03 9.32683996873467e-03)
(-2.00000000000000e-02 -3.51374824081240e-03 9.36234870639776e-03)
(-2.00000000000000e-02 -3.42020143325565e-03 9.39692620785946e-03)
(-2.00000000000000e-02 -3.32631443164178e-03 9.43056903383097e-03)
(-2.00000000000000e-02 -3.23209657454355e-03 9.46327383799200e-03)
(-2.00000000000000e-02 -3.13755723344265e-03 9.49503736732361e-03)
(-2.00000000000000e-02 -3.04270581179750e-03 9.52585646243180e-03)
(-2.00000000000000e-02 -2.94755174410797e-03 9.55572805786174e-03)
(-2.00000000000000e-02 -2.85210449497694e-03 9.58464918240268e-03)
(-2.00000000000000e-02 -2.75637355816891e-03 9.61261695938350e-03)
(-2.00000000000000e-02 -2.66036845566566e-03 9.63962860695883e-03)
(-2.00000000000000e-02 -2.56409873671919e-03 9.66568143838576e-03)
(-2.00000000000000e-02 -2.46757397690183e-03 9.69077286229106e-03)
(-2.00000000000000e-02 -2.37080377715386e-03 9.71490038292895e-03)
(-2.00000000000000e-02 -2.27379776282850e-03 9.73806160042932e-03)
(-2.00000000000000e-02 -2.17656558273450e-03 9.76025421103650e-03)
(-2.00000000000000e-02 -2.07911690817646e-03 9.78147600733830e-03)
(-2.00000000000000e-02 -1.98146143199284e-03 9.80172487848567e-03)
(-2.00000000000000e-02 -1.88360886759183e-03 9.82099881040261e-03)
(-2.00000000000000e-02 -1.78556894798522e-03 9.83929588598651e-03)
(-2.00000000000000e-02 -1.68735142482030e-03 9.85661428529883e-03)
(-2.00000000000000e-02 -1.58896606740987e-03 9.87295228574614e-03)
(-2.00000000000000e-02 -1.49042266176058e-03 9.88830826225146e-03)
(-2.00000000000000e-02 -1.39173100959948e-03 9.90268068741587e-03)
(-2.00000000000000e-02 -1.29290092739916e-03 9.91606813167046e-03)
(-2.00000000000000e-02 -1.19394224540126e-03 9.92846926341852e-03)
(-2.00000000000000e-02 -1.09486480663878e-03 9.93988284916798e-03)
(-2.00000000000000e-02 -9.95678465956974e-04 9.95030775365413e-03)
(-2.00000000000000e-02 -8.96393089033138e-04 9.95974293995250e-03)
(-2.00000000000000e-02 -7.97018551395323e-04 9.96818746958201e-03)
(-2.00000000000000e-02 -6.97564737440046e-04 9.97564050259833e-03)
(-2.00000000000000e-02 -5.98041539449130e-04 9.98210129767742e-03)
(-2.00000000000000e-02 -4.98458856605755e-04 9.98756921218929e-03)
(-2.00000000000000e-02 -3.98826594009828e-04 9.99204370226184e-03)
(-2.00000000000000e-02 -2.99154661692759e-04 9.99552432283507e-03)
(-2.00000000000000e-02 -1.99452973631751e-04 9.99801072770526e-03)
(-2.00000000000000e-02 -9.97314467636924e-05 9.99950266955944e-03)
(-1.99000000000000e-02 -3.43399061815141e-18 -1.00000000000000e-02)
(-1.98000000000000e-02 -3.42288838790516e-18 -1.00000000000000e-02)
(-1.97000000000000e-02 -3.41178615765891e-18 -1.00000000000000e-02)
(-1.96000000000000e-02 -3.40068392741266e-18 -1.00000000000000e-02)
(-1.95000000000000e-02 -3.38958169716641e-18 -1.00000000000000e-02)
(-1.94000000000000e-02 -3.37847946692016e-18 -1.00000000000000e-02)
(-1.93000000000000e-02 -3.36737723667391e-18 -1.00000000000000e-02)
(-1.92000000000000e-02 -3.35627500642765e-18 -1.00000000000000e-02)
(-1.91000000000000e-02 -3.34517277618140e-18 -1.00000000000000e-02)
(-1.90000000000000e-02 -3.33407054593515e-18 -1.00000000000000e-02)
(-1.89000000000000e-02 -3.32296831568890e-18 -1.00000000000000e-02)
(-1.88000000000000e-02 -3.31186608544265e-18 -1.00000000000000e-02)
(-1.87000000000000e-02 -3.30076385519640e-18 -1.00000000000000e-02)
(-1.86000000000000e-02 -3.28966162495014e-18 -1.00000000000000e-02)
(-1.85000000000000e-02 -3.27855939470389e-18 -1.00000000000000e-02)
(-1.84000000000000e-02 -3.26745716445764e-18 -1.00000000000000e-02)
(-1.83000000000000e-02 -3.25635493421139e-18 -1.00000000000000e-02)
(-1.82000000000000e-02 -3.24525270396514e-18 -1.00000000000000e-02)
(-1.81000000000000e-02 -3.23415047371889e-18 -1.00000000000000e-02)
(-1.80000000000000e-02 -3.22304824347263e-18 -1.00000000000000e-02)
(-1.79000000000000e-02 -3.21194601322638e-18 -1.00000000000000e-02)
(-1.78000000000000e-02 -3.20084378298013e-18 -1.00000000000000e-02)
(-1.77000000000000e-02 -3.18974155273388e-18 -1.00000000000000e-02)
(-1.76000000000000e-02 -3.17863932248763e-18 -1.00000000000000e-02)
(-1.75000000000000e-02 -3.16753709224138e-18 -1.00000000000000e-02)
(-1.74000000000000e-02 -3.15643486199513e-18 -1.00000000000000e-02)
(-1.73000000000000e-02 -3.14533263174887e-18 -1.00000000000000e-02)
(-1.72000000000000e-02 -3.13423040150262e-18 -1.00000000000000e-02)
(-1.71000000000000e-02 -3.12312817125637e-18 -1.00000000000000e-02)
(-1.70000000000000e-02 -3.11202594101012e-18 -1.00000000000000e-02)
(-1.69000000000000e-02 -3.10092371076387e-18 -1.00000000000000e-02)
(-1.68000000000000e-02 -3.08982148051762e-18 -1.00000000000000e-02)
(-1.67000000000000e-02 -3.07871925027136e-18 -1.00000000000000e-02)
(-1.66000000000000e-02 -3.06761702002511e-18 -1.00000000000000e-02)
(-1.65000000000000e-02 -3.05651478977886e-18 -1.00000000000000e-02)
(-1.64000000000000e-02 -3.04541255953261e-18 -1.00000000000000e-02)
(-1.63000000000000e-02 -3.03431032928636e-18 -1.00000000000000e-02)
(-1.62000000000000e-02 -3.02320809904011e-18 -1.00000000000000e-02)
(-1.61000000000000e-02 -3.01210586879386e-18 -1.00000000000000e-02)
(-1.60000000000000e-02 -3.00100363854760e-18 -1.00000000000000e-02)
(-1.59000000000000e-02 -2.98990140830135e-18 -1.00000000000000e-02)
(-1.58000000000000e-02 -2.97879917805510e-18 -1.00000000000000e-02)
(-1.57000000000000e-02 -2.96769694780885e-18 -1.00000000000000e-02)
(-1.56000000000000e-02 -2.95659471756260e-18 -1.00000000000000e-02)
(-1.55000000000000e-02 -2.94549248731635e-18 -1.00000000000000e-02)
(-1.54000000000000e-02 -2.93439025707009e-18 -1.00000000000000e-02)
(-1.53000000000000e-02 -2.92328802682384e-18 -1.00000000000000e-02)
(-1.52000000000000e-02 -2.91218579657759e-18 -1.00000000000000e-02)
(-1.51000000000000e-02 -2.90108356633134e-18 -1.00000000000000e-02)
(-1.50000000000000e-02 -2.88998133608509e-18 -1.00000000000000e-02)
(-1.49000000000000e-02 -2.87887910583884e-18 -1.00000000000000e-02)
(-1.48000000000000e-02 -2.86777687559258e-18 -1.00000000000000e-02)
(-1.47000000000000e-02 -2.85667464534633e-18 -1.00000000000000e-02)
(-1.46000000000000e-02 -2.84557241510008e-18 -1.00000000000000e-02)
(-1.45000000000000e-02 -2.83447018485383e-18 -1.00000000000000e-02)
(-1.44000000000000e-02 -2.82336795460758e-18 -1.00000000000000e-02)
(-1.43000000000000e-02 -2.81226572436133e-18 -1.00000000000000e-02)
(-1.42000000000000e-02 -2.80116349411508e-18 -1.00000000000000e-02)
(-1.41000000000000e-02 -2.79006126386882e-18 -1.00000000000000e-02)
(-1.40000000000000e-02 -2.77895903362257e-18 -1.00000000000000e-02)
(-1.39000000000000e-02 -2.76785680337632e-18 -1.00000000000000e-02)
(-1.38000000000000e-02 -2.75675457313007e-18 -1.00000000000000e-02)
(-1.37000000000000e-02 -2.74565234288382e-18 -1.00000000000000e-02)
(-1.36000000000000e-02 -2.73455011263757e-18 -1.00000000000000e-02)
(-1.35000000000000e-02 -2.72344788239131e-18 -1.00000000000000e-02)
(-1.34000000000000e-02 -2.71234565214506e-18 -1.00000000000000e-02)
(-1.33000000000000e-02 -2.70124342189881e-18 -1.00000000000000e-02)
(-1.32000000000000e-02 -2.69014119165256e-18 -1.00000000000000e-02)
(-1.31000000000000e-02 -2.67903896140631e-18 -1.00000000000000e-02)
(-1.30000000000000e-02 -2.66793673116006e-18 -1.00000000000000e-02)
(-1.29000000000000e-02 -2.65683450091380e-18 -1.00000000000000e-02)
(-1.28000000000000e-02 -2.64573227066755e-18 -1.00000000000000e-02)
(-1.27000000000000e-02 -2.63463004042130e-18 -1.00000000000000e-02)
(-1.26000000000000e-02 -2.62352781017505e-18 -1.00000000000000e-02)
(-1.25000000000000e-02 -2.61242557992880e-18 -1.00000000000000e-02)
(-1.24000000000000e-02 -2.60132334968255e-18 -1.00000000000000e-02)
(-1.23000000000000e-02 -2.59022111943630e-18 -1.00000000000000e-02)
(-1.22000000000000e-02 -2.57911888919004e-18 -1.00000000000000e-02)
(-1.21000000000000e-02 -2.56801665894379e-18 -1.00000000000000e-02)
(-1.20000000000000e-02 -2.55691442869754e-18 -1.00000000000000e-02)
(-1.19000000000000e-02 -2.54581219845129e-18 -1.00000000000000e-02)
(-1.18000000000000e-02 -2.53470996820504e-18 -1.00000000000000e-02)
(-1.17000000000000e-02 -2.52360773795879e-18 -1.00000000000000e-02)
(-1.16000000000000e-02 -2.51250550771253e-18 -1.00000000000000e-02)
(-1.15000000000000e-02 -2.50140327746628e-18 -1.00000000000000e-02)
(-1.14000000000000e-02 -2.49030104722003e-18 -1.00000000000000e-02)
(-1.13000000000000e-02 -2.47919881697378e-18 -1.00000000000000e-02)
(-1.12000000000000e-02 -2.46809658672753e-18 -1.00000000000000e-02)
(-1.11000000000000e-02 -2.45699435648128e-18 -1.00000000000000e-02)
(-1.10000000000000e-02 -2.44589212623503e-18 -1.00000000000000e-02)
(-1.09000000000000e-02 -2.43478989598877e-18 -1.00000000000000e-02)
(-1.08000000000000e-02 -2.42368766574252e-18 -1.00000000000000e-02)