/*--------------------------------*- C++ -*----------------------------------*\
| =========                 |                                                 |
| \\      /  F ield         | OpenFOAM: The Open Source CFD Toolbox           |
|  \\    /   O peration     | Version:  v2012                                 |
|   \\  /    A nd           | Website:  www.openfoam.com                      |
|    \\/     M anipulation  |                                                 |
\*---------------------------------------------------------------------------*/
FoamFile
{
    version     2.0;
    format      ascii;
    class       extendedFeatureEdgeMesh;
    location    "constant/extendedFeatureEdgeMesh";
    object      hubs.extendedFeatureEdgeMesh;
}
// * * * * * * * * * * * * * * * * * * * * * * * * * * * * * * * * * * * * * //

// points

378
(
(-4.72695e-18 0.015 -0.01)
(-5.72119e-20 0.015 0.01)
(0.000490677 0.015 -0.00998795)
(0.000980171 0.015 -0.00995185)
(0.00146731 0.015 -0.00989177)
(0.0019509 0.015 -0.00980785)
(0.0024298 0.015 -0.00970031)
(0.00290285 0.015 -0.0095694)
(0.0033689 0.015 -0.00941544)
(0.00382683 0.015 -0.0092388)
(0.00427555 0.015 -0.00903989)
(0.00471397 0.015 -0.00881921)
(0.00514103 0.015 -0.00857729)
(0.0055557 0.015 -0.0083147)
(0.00595699 0.015 -0.00803208)
(0.00634393 0.015 -0.0077301)
(0.00671559 0.015 -0.00740951)
(0.00707107 0.015 -0.00707107)
(0.00740951 0.015 -0.00671559)
(0.0077301 0.015 -0.00634393)
(0.00803208 0.015 -0.00595699)
(0.0083147 0.015 -0.0055557)
(0.00857729 0.015 -0.00514103)
(0.00881921 0.015 -0.00471397)
(0.00903989 0.015 -0.00427555)
(0.0092388 0.015 -0.00382683)
(0.00941544 0.015 -0.0033689)
(0.0095694 0.015 -0.00290285)
(0.00970031 0.015 -0.0024298)
(0.00980785 0.015 -0.0019509)
(0.00989177 0.015 -0.00146731)
(0.00995185 0.015 -0.000980171)
(0.00998795 0.015 -0.000490677)
(0.01 0.015 0)
(-0.01 0.015 0)
(-0.00998795 0.015 -0.000490677)
(-0.00995185 0.015 -0.000980171)
(-0.00989177 0.015 -0.00146731)
(-0.00980785 0.015 -0.0019509)
(-0.00970031 0.015 -0.0024298)
(-0.0095694 0.015 -0.00290285)
(-0.00941544 0.015 -0.0033689)
(-0.0092388 0.015 -0.00382683)
(-0.00903989 0.015 -0.00427555)
(-0.00881921 0.015 -0.00471397)
(-0.00857729 0.015 -0.00514103)
(-0.0083147 0.015 -0.0055557)
(-0.00803208 0.015 -0.00595699)
(-0.0077301 0.015 -0.00634393)
(-0.00740951 0.015 -0.00671559)
(-0.00707107 0.015 -0.00707107)
(-0.00671559 0.015 -0.00740951)
(-0.00634393 0.015 -0.0077301)
(-0.00595699 0.015 -0.00803208)
(-0.0055557 0.015 -0.0083147)
(-0.00514103 0.015 -0.00857729)
(-0.00471397 0.015 -0.00881921)
(-0.00427555 0.015 -0.00903989)
(-0.00382683 0.015 -0.0092388)
(-0.0033689 0.015 -0.00941544)
(-0.00290285 0.015 -0.0095694)
(-0.0024298 0.015 -0.00970031)
(-0.0019509 0.015 -0.00980785)
(-0.00146731 0.015 -0.00989177)
(-0.000980171 0.015 -0.00995185)
(-0.000490677 0.015 -0.00998795)
(-0.000490677 0.015 0.00998795)
(-0.000980171 0.015 0.00995185)
(-0.00146731 0.015 0.00989177)
(-0.0019509 0.015 0.00980785)
(-0.0024298 0.015 0.00970031)
(-0.00290285 0.015 0.0095694)
(-0.0033689 0.015 0.00941544)
(-0.00382683 0.015 0.0092388)
(-0.00427555 0.015 0.00903989)
(-0.00471397 0.015 0.00881921)
(-0.00514103 0.015 0.00857729)
(-0.0055557 0.015 0.0083147)
(-0.00595699 0.015 0.00803208)
(-0.00634393 0.015 0.0077301)
(-0.00671559 0.015 0.00740951)
(-0.00707107 0.015 0.00707107)
(-0.00740951 0.015 0.00671559)
(-0.0077301 0.015 0.00634393)
(-0.00803208 0.015 0.00595699)
(-0.0083147 0.015 0.0055557)
(-0.00857729 0.015 0.00514103)
(-0.00881921 0.015 0.00471397)
(-0.00903989 0.015 0.00427555)
(-0.0092388 0.015 0.00382683)
(-0.00941544 0.015 0.0033689)
(-0.0095694 0.015 0.00290285)
(-0.00970031 0.015 0.0024298)
(-0.00980785 0.015 0.0019509)
(-0.00989177 0.015 0.00146731)
(-0.00995185 0.015 0.000980171)
(-0.00998795 0.015 0.000490677)
(0.00998795 0.015 0.000490677)
(0.00995185 0.015 0.000980171)
(0.00989177 0.015 0.00146731)
(0.00980785 0.015 0.0019509)
(0.00970031 0.015 0.0024298)
(0.0095694 0.015 0.00290285)
(0.00941544 0.015 0.0033689)
(0.0092388 0.015 0.00382683)
(0.00903989 0.015 0.00427555)
(0.00881921 0.015 0.00471397)
(0.00857729 0.015 0.00514103)
(0.0083147 0.015 0.0055557)
(0.00803208 0.015 0.00595699)
(0.0077301 0.015 0.00634393)
(0.00740951 0.015 0.00671559)
(0.00707107 0.015 0.00707107)
(0.00671559 0.015 0.00740951)
(0.00634393 0.015 0.0077301)
(0.00595699 0.015 0.00803208)
(0.0055557 0.015 0.0083147)
(0.00514103 0.015 0.00857729)
(0.00471397 0.015 0.00881921)
(0.00427555 0.015 0.00903989)
(0.00382683 0.015 0.0092388)
(0.0033689 0.015 0.00941544)
(0.00290285 0.015 0.0095694)
(0.0024298 0.015 0.00970031)
(0.0019509 0.015 0.00980785)
(0.00146731 0.015 0.00989177)
(0.000980171 0.015 0.00995185)
(0.000490677 0.015 0.00998795)
(-0.000498459 0.015 -0.00998757)
(1.22465e-18 -0.02 -0.01)
(-0.000498459 -0.02 -0.00998757)
(-0.000995678 -0.02 -0.00995031)
(-0.00149042 -0.02 -0.00988831)
(-0.00198146 -0.02 -0.00980172)
(-0.00246757 -0.02 -0.00969077)
(-0.00294755 -0.02 -0.00955573)
(-0.0034202 -0.02 -0.00939693)
(-0.00388435 -0.02 -0.00921476)
(-0.00433884 -0.02 -0.00900969)
(-0.00478254 -0.02 -0.00878222)
(-0.00521435 -0.02 -0.00853291)
(-0.0056332 -0.02 -0.00826239)
(-0.00603804 -0.02 -0.00797132)
(-0.00642788 -0.02 -0.00766044)
(-0.00680173 -0.02 -0.00733052)
(-0.00715867 -0.02 -0.00698237)
(-0.00749781 -0.02 -0.00661686)
(-0.00781832 -0.02 -0.0062349)
(-0.00811938 -0.02 -0.00583744)
(-0.00840026 -0.02 -0.00542546)
(-0.00866025 -0.02 -0.005)
(-0.00889872 -0.02 -0.00456211)
(-0.00911506 -0.02 -0.00411287)
(-0.00930874 -0.02 -0.00365341)
(-0.00947927 -0.02 -0.00318487)
(-0.00962624 -0.02 -0.00270841)
(-0.00974928 -0.02 -0.00222521)
(-0.00984808 -0.02 -0.00173648)
(-0.00992239 -0.02 -0.00124344)
(-0.00997204 -0.02 -0.000747301)
(-0.00999689 -0.02 -0.000249307)
(-0.00999689 -0.02 0.000249307)
(-0.00997204 -0.02 0.000747301)
(-0.00992239 -0.02 0.00124344)
(-0.00984808 -0.02 0.00173648)
(-0.00974928 -0.02 0.00222521)
(-0.00962624 -0.02 0.00270841)
(-0.00947927 -0.02 0.00318487)
(-0.00930874 -0.02 0.00365341)
(-0.00911506 -0.02 0.00411287)
(-0.00889872 -0.02 0.00456211)
(-0.00866025 -0.02 0.005)
(-0.00840026 -0.02 0.00542546)
(-0.00811938 -0.02 0.00583744)
(-0.00781832 -0.02 0.0062349)
(-0.00749781 -0.02 0.00661686)
(-0.00715867 -0.02 0.00698237)
(-0.00680173 -0.02 0.00733052)
(-0.00642788 -0.02 0.00766044)
(-0.00603804 -0.02 0.00797132)
(-0.0056332 -0.02 0.00826239)
(-0.00521435 -0.02 0.00853291)
(-0.00478254 -0.02 0.00878222)
(-0.00433884 -0.02 0.00900969)
(-0.00388435 -0.02 0.00921476)
(-0.0034202 -0.02 0.00939693)
(-0.00294755 -0.02 0.00955573)
(-0.00246757 -0.02 0.00969077)
(-0.00198146 -0.02 0.00980172)
(-0.00149042 -0.02 0.00988831)
(-0.000995678 -0.02 0.00995031)
(-0.000498459 -0.02 0.00998757)
(0 -0.02 0.01)
(-0.000498459 0.015 0.00998757)
(-0.000995678 0.015 0.00995031)
(-0.00149042 0.015 0.00988831)
(-0.00198146 0.015 0.00980172)
(-0.00246757 0.015 0.00969077)
(-0.00294755 0.015 0.00955573)
(-0.0034202 0.015 0.00939693)
(-0.00388435 0.015 0.00921476)
(-0.00433884 0.015 0.00900969)
(-0.00478254 0.015 0.00878222)
(-0.00521435 0.015 0.00853291)
(-0.0056332 0.015 0.00826239)
(-0.00603804 0.015 0.00797132)
(-0.00642788 0.015 0.00766044)
(-0.00680173 0.015 0.00733052)
(-0.00715867 0.015 0.00698237)
(-0.00749781 0.015 0.00661686)
(-0.00781832 0.015 0.0062349)
(-0.00811938 0.015 0.00583744)
(-0.00840026 0.015 0.00542546)
(-0.00866025 0.015 0.005)
(-0.00889872 0.015 0.00456211)
(-0.00911506 0.015 0.00411287)
(-0.00930874 0.015 0.00365341)
(-0.00947927 0.015 0.00318487)
(-0.00962624 0.015 0.00270841)
(-0.00974928 0.015 0.00222521)
(-0.00984808 0.015 0.00173648)
(-0.00992239 0.015 0.00124344)
(-0.00997204 0.015 0.000747301)
(-0.00999689 0.015 0.000249307)
(-0.00999689 0.015 -0.000249307)
(-0.00997204 0.015 -0.000747301)
(-0.00992239 0.015 -0.00124344)
(-0.00984808 0.015 -0.00173648)
(-0.00974928 0.015 -0.00222521)
(-0.00962624 0.015 -0.00270841)
(-0.00947927 0.015 -0.00318487)
(-0.00930874 0.015 -0.00365341)
(-0.00911506 0.015 -0.00411287)
(-0.00889872 0.015 -0.00456211)
(-0.00866025 0.015 -0.005)
(-0.00840026 0.015 -0.00542546)
(-0.00811938 0.015 -0.00583744)
(-0.00781832 0.015 -0.0062349)
(-0.00749781 0.015 -0.00661686)
(-0.00715867 0.015 -0.00698237)
(-0.00680173 0.015 -0.00733052)
(-0.00642788 0.015 -0.00766044)
(-0.00603804 0.015 -0.00797132)
(-0.0056332 0.015 -0.00826239)
(-0.00521435 0.015 -0.00853291)
(-0.00478254 0.015 -0.00878222)
(-0.00433884 0.015 -0.00900969)
(-0.00388435 0.015 -0.00921476)
(-0.0034202 0.015 -0.00939693)
(-0.00294755 0.015 -0.00955573)
(-0.00246757 0.015 -0.00969077)
(-0.00198146 0.015 -0.00980172)
(-0.00149042 0.015 -0.00988831)
(-0.000995678 0.015 -0.00995031)
(0.000498459 -0.02 -0.00998757)
(0.000995678 -0.02 -0.00995031)
(0.00149042 -0.02 -0.00988831)
(0.00198146 -0.02 -0.00980172)
(0.00246757 -0.02 -0.00969077)
(0.00294755 -0.02 -0.00955573)
(0.0034202 -0.02 -0.00939693)
(0.00388435 -0.02 -0.00921476)
(0.00433884 -0.02 -0.00900969)
(0.00478254 -0.02 -0.00878222)
(0.00521435 -0.02 -0.00853291)
(0.0056332 -0.02 -0.00826239)
(0.00603804 -0.02 -0.00797132)
(0.00642788 -0.02 -0.00766044)
(0.00680173 -0.02 -0.00733052)
(0.00715867 -0.02 -0.00698237)
(0.00749781 -0.02 -0.00661686)
(0.00781832 -0.02 -0.0062349)
(0.00811938 -0.02 -0.00583744)
(0.00840026 -0.02 -0.00542546)
(0.00866025 -0.02 -0.005)
(0.00889872 -0.02 -0.00456211)
(0.00911506 -0.02 -0.00411287)
(0.00930874 -0.02 -0.00365341)
(0.00947927 -0.02 -0.00318487)
(0.00962624 -0.02 -0.00270841)
(0.00974928 -0.02 -0.00222521)
(0.00984808 -0.02 -0.00173648)
(0.00992239 -0.02 -0.00124344)
(0.00997204 -0.02 -0.000747301)
(0.00999689 -0.02 -0.000249307)
(0.00999689 -0.02 0.000249307)
(0.00997204 -0.02 0.000747301)
(0.00992239 -0.02 0.00124344)
(0.00984808 -0.02 0.00173648)
(0.00974928 -0.02 0.00222521)
(0.00962624 -0.02 0.00270841)
(0.00947927 -0.02 0.00318487)
(0.00930874 -0.02 0.00365341)
(0.00911506 -0.02 0.00411287)
(0.00889872 -0.02 0.00456211)
(0.00866025 -0.02 0.005)
(0.00840026 -0.02 0.00542546)
(0.00811938 -0.02 0.00583744)
(0.00781832 -0.02 0.0062349)
(0.00749781 -0.02 0.00661686)
(0.00715867 -0.02 0.00698237)
(0.00680173 -0.02 0.00733052)
(0.00642788 -0.02 0.00766044)
(0.00603804 -0.02 0.00797132)
(0.0056332 -0.02 0.00826239)
(0.00521435 -0.02 0.00853291)
(0.00478254 -0.02 0.00878222)
(0.00433884 -0.02 0.00900969)
(0.00388435 -0.02 0.00921476)
(0.0034202 -0.02 0.00939693)
(0.00294755 -0.02 0.00955573)
(0.00246757 -0.02 0.00969077)
(0.00198146 -0.02 0.00980172)
(0.00149042 -0.02 0.00988831)
(0.000995678 -0.02 0.00995031)
(0.000498459 -0.02 0.00998757)
(0.000498459 0.015 0.00998757)
(0.000995678 0.015 0.00995031)
(0.00149042 0.015 0.00988831)
(0.00198146 0.015 0.00980172)
(0.00246757 0.015 0.00969077)
(0.00294755 0.015 0.00955573)
(0.0034202 0.015 0.00939693)
(0.00388435 0.015 0.00921476)
(0.00433884 0.015 0.00900969)
(0.00478254 0.015 0.00878222)
(0.00521435 0.015 0.00853291)
(0.0056332 0.015 0.00826239)
(0.00603804 0.015 0.00797132)
(0.00642788 0.015 0.00766044)
(0.00680173 0.015 0.00733052)
(0.00715867 0.015 0.00698237)
(0.00749781 0.015 0.00661686)
(0.00781832 0.015 0.0062349)
(0.00811938 0.015 0.00583744)
(0.00840026 0.015 0.00542546)
(0.00866025 0.015 0.005)
(0.00889872 0.015 0.00456211)
(0.00911506 0.015 0.00411287)
(0.00930874 0.015 0.00365341)
(0.00947927 0.015 0.00318487)
(0.00962624 0.015 0.00270841)
(0.00974928 0.015 0.00222521)
(0.00984808 0.015 0.00173648)
(0.00992239 0.015 0.00124344)
(0.00997204 0.015 0.000747301)
(0.00999689 0.015 0.000249307)
(0.00999689 0.015 -0.000249307)
(0.00997204 0.015 -0.000747301)
(0.00992239 0.015 -0.00124344)
(0.00984808 0.015 -0.00173648)
(0.00974928 0.015 -0.00222521)
(0.00962624 0.015 -0.00270841)
(0.00947927 0.015 -0.00318487)
(0.00930874 0.015 -0.00365341)
(0.00911506 0.015 -0.00411287)
(0.00889872 0.015 -0.00456211)
(0.00866025 0.015 -0.005)
(0.00840026 0.015 -0.00542546)
(0.00811938 0.015 -0.00583744)
(0.00781832 0.015 -0.0062349)
(0.00749781 0.015 -0.00661686)
(0.00715867 0.015 -0.00698237)
(0.00680173 0.015 -0.00733052)
(0.00642788 0.015 -0.00766044)
(0.00603804 0.015 -0.00797132)
(0.0056332 0.015 -0.00826239)
(0.00521435 0.015 -0.00853291)
(0.00478254 0.015 -0.00878222)
(0.00433884 0.015 -0.00900969)
(0.00388435 0.015 -0.00921476)
(0.0034202 0.015 -0.00939693)
(0.00294755 0.015 -0.00955573)
(0.00246757 0.015 -0.00969077)
(0.00198146 0.015 -0.00980172)
(0.00149042 0.015 -0.00988831)
(0.000995678 0.015 -0.00995031)
(0.000498459 0.015 -0.00998757)
)

// edges

380
(
(128 0)
(129 130)
(130 131)
(132 133)
(134 135)
(136 137)
(138 139)
(140 141)
(142 143)
(144 145)
(146 147)
(148 149)
(150 151)
(152 153)
(154 155)
(156 157)
(158 159)
(160 161)
(162 163)
(164 165)
(166 167)
(168 169)
(170 171)
(172 173)
(174 175)
(176 177)
(178 179)
(180 181)
(182 183)
(184 185)
(186 187)
(188 189)
(190 191)
(191 192)
(1 193)
(193 194)
(194 195)
(196 197)
(198 199)
(200 201)
(202 203)
(204 205)
(206 207)
(208 209)
(210 211)
(212 213)
(214 215)
(216 217)
(218 219)
(220 221)
(222 223)
(224 225)
(226 227)
(228 229)
(230 231)
(232 233)
(234 235)
(236 237)
(238 239)
(240 241)
(242 243)
(244 245)
(246 247)
(248 249)
(250 251)
(252 253)
(131 132)
(133 134)
(135 136)
(137 138)
(139 140)
(141 142)
(143 144)
(145 146)
(147 148)
(149 150)
(151 152)
(153 154)
(155 156)
(157 158)
(159 160)
(161 162)
(163 164)
(165 166)
(167 168)
(169 170)
(171 172)
(173 174)
(175 176)
(177 178)
(179 180)
(181 182)
(183 184)
(185 186)
(187 188)
(189 190)
(195 196)
(197 198)
(199 200)
(201 202)
(203 204)
(205 206)
(207 208)
(209 210)
(211 212)
(213 214)
(215 216)
(217 218)
(219 220)
(221 222)
(223 224)
(225 226)
(227 228)
(229 230)
(231 232)
(233 234)
(235 236)
(237 238)
(239 240)
(241 242)
(243 244)
(245 246)
(247 248)
(249 250)
(251 252)
(253 128)
(254 255)
(256 257)
(258 259)
(260 261)
(262 263)
(264 265)
(266 267)
(268 269)
(270 271)
(272 273)
(274 275)
(276 277)
(278 279)
(280 281)
(282 283)
(284 285)
(286 287)
(288 289)
(290 291)
(292 293)
(294 295)
(296 297)
(298 299)
(300 301)
(302 303)
(304 305)
(306 307)
(308 309)
(310 311)
(312 313)
(314 315)
(315 192)
(129 254)
(255 256)
(257 258)
(259 260)
(261 262)
(263 264)
(265 266)
(267 268)
(269 270)
(271 272)
(273 274)
(275 276)
(277 278)
(279 280)
(281 282)
(283 284)
(285 286)
(287 288)
(289 290)
(291 292)
(293 294)
(295 296)
(297 298)
(299 300)
(301 302)
(303 304)
(305 306)
(307 308)
(309 310)
(311 312)
(313 314)
(316 317)
(318 319)
(320 321)
(322 323)
(324 325)
(326 327)
(328 329)
(330 331)
(332 333)
(334 335)
(336 337)
(338 339)
(340 341)
(342 343)
(344 345)
(346 347)
(348 349)
(350 351)
(352 353)
(354 355)
(356 357)
(358 359)
(360 361)
(362 363)
(364 365)
(366 367)
(368 369)
(370 371)
(372 373)
(374 375)
(376 377)
(377 0)
(1 316)
(317 318)
(319 320)
(321 322)
(323 324)
(325 326)
(327 328)
(329 330)
(331 332)
(333 334)
(335 336)
(337 338)
(339 340)
(341 342)
(343 344)
(345 346)
(347 348)
(349 350)
(351 352)
(353 354)
(355 356)
(357 358)
(359 360)
(361 362)
(363 364)
(365 366)
(367 368)
(369 370)
(371 372)
(373 374)
(375 376)
(0 2)
(3 4)
(5 6)
(7 8)
(9 10)
(11 12)
(13 14)
(15 16)
(17 18)
(19 20)
(21 22)
(23 24)
(25 26)
(27 28)
(29 30)
(31 32)
(32 33)
(34 35)
(35 36)
(36 37)
(38 39)
(40 41)
(42 43)
(44 45)
(46 47)
(48 49)
(50 51)
(52 53)
(54 55)
(56 57)
(58 59)
(60 61)
(62 63)
(64 65)
(65 0)
(2 3)
(4 5)
(6 7)
(8 9)
(10 11)
(12 13)
(14 15)
(16 17)
(18 19)
(20 21)
(22 23)
(24 25)
(26 27)
(28 29)
(30 31)
(37 38)
(39 40)
(41 42)
(43 44)
(45 46)
(47 48)
(49 50)
(51 52)
(53 54)
(55 56)
(57 58)
(59 60)
(61 62)
(63 64)
(1 66)
(67 68)
(69 70)
(71 72)
(73 74)
(75 76)
(77 78)
(79 80)
(81 82)
(83 84)
(85 86)
(87 88)
(89 90)
(91 92)
(93 94)
(95 96)
(96 34)
(33 97)
(97 98)
(99 100)
(101 102)
(103 104)
(105 106)
(107 108)
(109 110)
(111 112)
(113 114)
(115 116)
(117 118)
(119 120)
(121 122)
(123 124)
(125 126)
(127 1)
(66 67)
(68 69)
(70 71)
(72 73)
(74 75)
(76 77)
(78 79)
(80 81)
(82 83)
(84 85)
(86 87)
(88 89)
(90 91)
(92 93)
(94 95)
(98 99)
(100 101)
(102 103)
(104 105)
(106 107)
(108 109)
(110 111)
(112 113)
(114 115)
(116 117)
(118 119)
(120 121)
(122 123)
(124 125)
(126 127)
)

// concaveStart mixedStart nonFeatureStart
0 0 2
// internalStart flatStart openStart multipleStart
252 252 252 380
// normals

632
(
(-0.0245363 -0.0172385 0.99955)
(-0.122394 -0.0158413 0.992355)
(-0.219078 -0.0142957 0.975603)
(-0.313648 -0.0141664 0.949434)
(-0.405194 -0.015209 0.914104)
(-0.492832 -0.0165044 0.869968)
(-0.575731 -0.0163442 0.817476)
(-0.653094 -0.0155835 0.757117)
(-0.724166 -0.0149308 0.689464)
(-0.788262 -0.0146816 0.615164)
(-0.84475 -0.0156327 0.534932)
(-0.893114 -0.0157273 0.449555)
(-0.932875 -0.0158627 0.359851)
(-0.96367 -0.014817 0.266686)
(-0.985188 -0.0134947 0.170946)
(-0.997193 -0.0139747 0.0735594)
(-0.999388 -0.0249222 0.0245323)
(0.999532 -0.0182662 0.0245358)
(0.997108 -0.0191112 0.0735532)
(0.992408 -0.0120085 0.1224)
(0.975593 -0.0149783 0.219076)
(0.949413 -0.0156322 0.313641)
(0.914093 -0.0159716 0.40519)
(0.86997 -0.0164036 0.492833)
(0.817482 -0.0158829 0.575735)
(0.757116 -0.0156662 0.653093)
(0.689456 -0.0156304 0.724159)
(0.615157 -0.0154687 0.788253)
(0.534937 -0.0150367 0.844758)
(0.449558 -0.0153314 0.89312)
(0.359847 -0.016528 0.932865)
(0.266685 -0.014936 0.963668)
(0.170944 -0.0143271 0.985177)
(0.0735572 -0.0160007 0.997163)
(0.0245363 -0.0171228 0.999552)
(-0.0735559 -0.0170943 0.997145)
(-0.170943 -0.0149944 0.985167)
(-0.266688 -0.0141612 0.963679)
(-0.35986 -0.0142487 0.932898)
(-0.449551 -0.016329 0.893105)
(-0.534921 -0.0169197 0.844733)
(-0.61515 -0.0161853 0.788244)
(-0.689468 -0.014548 0.72417)
(-0.757115 -0.0157762 0.653092)
(-0.817479 -0.0160899 0.575734)
(-0.869971 -0.0162982 0.492833)
(-0.914085 -0.016514 0.405186)
(-0.949403 -0.016292 0.313638)
(-0.975602 -0.0143077 0.219078)
(-0.992378 -0.0142881 0.122397)
(0.985168 -0.0149008 0.170943)
(0.963661 -0.0153815 0.266684)
(0.932869 -0.016265 0.359849)
(0.893102 -0.0165857 0.449549)
(0.844743 -0.0161555 0.534928)
(0.788249 -0.0157837 0.615154)
(0.724154 -0.0160202 0.689452)
(0.653093 -0.0156658 0.757116)
(0.575747 -0.0145861 0.817498)
(0.492836 -0.0160206 0.869975)
(0.405188 -0.0162199 0.91409)
(0.313639 -0.0160282 0.949407)
(0.219076 -0.0147609 0.975596)
(0.122396 -0.0149217 0.992369)
(0.0245368 -0.0159776 -0.999571)
(0.122396 -0.0144289 -0.992376)
(0.219078 -0.0141861 -0.975604)
(0.313638 -0.0161891 -0.949404)
(0.405191 -0.0157813 -0.914096)
(0.492832 -0.0165331 -0.869968)
(0.57573 -0.0165104 -0.817473)
(0.653086 -0.0162806 -0.757108)
(0.72416 -0.0155363 -0.689457)
(0.788258 -0.0150196 -0.615161)
(0.844753 -0.0154547 -0.534934)
(0.893108 -0.0161291 -0.449552)
(0.93288 -0.0155374 -0.359853)
(0.963654 -0.0158659 -0.266682)
(0.985171 -0.0146939 -0.170943)
(0.997149 -0.0168178 -0.0735562)
(0.999515 -0.0191679 -0.0245354)
(-0.999388 -0.0249222 -0.0245323)
(-0.997173 -0.0153147 -0.073558)
(-0.985158 -0.0155714 -0.170941)
(-0.963641 -0.0166801 -0.266678)
(-0.932862 -0.0166945 -0.359846)
(-0.893118 -0.0154584 -0.449557)
(-0.844743 -0.0161838 -0.534928)
(-0.788252 -0.015512 -0.615157)
(-0.724168 -0.0147824 -0.689465)
(-0.653105 -0.0143907 -0.75713)
(-0.575743 -0.0150439 -0.817492)
(-0.492848 -0.0143363 -0.869997)
(-0.405204 -0.0135375 -0.914126)
(-0.313635 -0.0168088 -0.949395)
(-0.21907 -0.0166788 -0.975567)
(-0.122394 -0.0159366 -0.992354)
(-0.0245371 -0.0152352 -0.999583)
(0.0735588 -0.0145949 -0.997184)
(0.170944 -0.0142418 -0.985178)
(0.266687 -0.0144649 -0.963675)
(0.359848 -0.0163825 -0.932867)
(0.449555 -0.0158069 -0.893113)
(0.534924 -0.0165778 -0.844737)
(0.615144 -0.0168349 -0.788235)
(0.689447 -0.0165082 -0.724148)
(0.757112 -0.0160231 -0.653089)
(0.817498 -0.014571 -0.575747)
(0.869962 -0.0168933 -0.492829)
(0.9141 -0.0155049 -0.405193)
(0.949393 -0.0169431 -0.313635)
(0.975593 -0.0149574 -0.219076)
(0.992355 -0.0158451 -0.122394)
(-0.992356 -0.0157944 -0.122394)
(-0.975567 -0.0166828 -0.21907)
(-0.949378 -0.0178055 -0.31363)
(-0.914087 -0.0163948 -0.405187)
(-0.869973 -0.0161353 -0.492835)
(-0.817478 -0.0161378 -0.575733)
(-0.757129 -0.0145361 -0.653104)
(-0.689465 -0.0147737 -0.724168)
(-0.615159 -0.0153168 -0.788255)
(-0.534932 -0.0156641 -0.84475)
(-0.449565 -0.0142332 -0.893134)
(-0.359855 -0.0152513 -0.932884)
(-0.266679 -0.0165388 -0.963644)
(-0.170937 -0.0169922 -0.985135)
(-0.0735579 -0.0153857 -0.997172)
(-0.0249298 -2.96745e-16 -0.999689)
(0 1 0)
(-0.0249298 -0 -0.999689)
(0 -1 0)
(-0.0747279 -0.00696528 -0.99718)
(0 -1 0)
(-0.173644 -0.00698553 -0.984784)
(0 -1 0)
(-0.270833 -0.00718915 -0.9626)
(0 -1 0)
(-0.36533 -0.00731668 -0.930849)
(0 -1 0)
(-0.456199 -0.00713754 -0.889849)
(0 -1 0)
(-0.54253 -0.00744499 -0.840003)
(0 -1 0)
(-0.623473 -0.00743994 -0.781809)
(0 -1 0)
(-0.698219 -0.00731908 -0.715846)
(0 -1 0)
(-0.766022 -0.00742432 -0.642771)
(0 -1 0)
(-0.826218 -0.007195 -0.563304)
(0 -1 0)
(-0.8782 -0.00702377 -0.478243)
(0 -1 0)
(-0.921452 -0.00741789 -0.388422)
(0 -1 0)
(-0.955548 -0.00717676 -0.294748)
(0 -1 0)
(-0.980145 -0.00742531 -0.198141)
(0 -1 0)
(-0.995005 -0.00712868 -0.0995655)
(0 -1 0)
(-0.999974 -0.0072646 0)
(0 -1 0)
(-0.995007 -0.00696332 0.0995657)
(0 -1 -0)
(-0.980147 -0.0071383 0.198141)
(0 -1 -0)
(-0.955548 -0.00725349 0.294748)
(0 -1 -0)
(-0.921452 -0.00730807 0.388422)
(0 -1 -0)
(-0.878199 -0.00719386 0.478242)
(0 -1 -0)
(-0.826216 -0.00747049 0.563303)
(0 -1 -0)
(-0.766023 -0.00726497 0.642772)
(0 -1 -0)
(-0.698219 -0.007319 0.715846)
(0 -1 -0)
(-0.623474 -0.00730132 0.78181)
(0 -1 -0)
(-0.54253 -0.00735254 0.840004)
(0 -1 -0)
(-0.456198 -0.00727182 0.889849)
(0 -1 0)
(-0.36533 -0.0074647 0.930848)
(0 -1 0)
(-0.270833 -0.00710115 0.9626)
(0 -1 0)
(-0.173644 -0.00721962 0.984782)
(0 -1 0)
(-0.074728 -0.00681075 0.997181)
(0 -1 0)
(-0.0249295 -0.00543819 0.999674)
(0 -1 0)
(-0.0249298 0.00106497 0.999689)
(-0 1 0)
(-0.0747297 -0.00113718 0.997203)
(-0 1 0)
(-0.124341 0.00722559 0.992213)
(-0 1 0)
(-0.222515 0.00731136 0.974902)
(-0 1 0)
(-0.31848 0.00721586 0.947902)
(-0 1 0)
(-0.411275 0.00733038 0.911482)
(-0 1 0)
(-0.499988 0.00720688 0.866002)
(-0 1 0)
(-0.583729 0.00749128 0.811914)
(-0 1 0)
(-0.661667 0.00744387 0.749761)
(-0 1 0)
(-0.733031 0.00747177 0.680154)
(-0 1 0)
(-0.797111 0.00730433 0.603788)
(-0 1 0)
(-0.853267 0.00738169 0.521422)
(-0 1 0)
(-0.900944 0.0074359 0.433872)
(0 1 0)
(-0.939666 0.00750241 0.342012)
(0 1 0)
(-0.969052 0.00726543 0.246751)
(0 1 0)
(-0.988804 0.0074323 0.149037)
(0 1 0)
(-0.998729 0.00743319 0.0498452)
(0 1 0)
(-0.99873 0.00729584 -0.0498453)
(0 1 -0)
(-0.988805 0.00725827 -0.149037)
(0 1 -0)
(-0.969053 0.00705303 -0.246752)
(0 1 -0)
(-0.939666 0.00744295 -0.342012)
(0 1 -0)
(-0.900944 0.00735901 -0.433872)
(0 1 -0)
(-0.853267 0.0073739 -0.521422)
(0 1 -0)
(-0.797111 0.00740624 -0.603788)
(0 1 -0)
(-0.733032 0.00723166 -0.680156)
(0 1 -0)
(-0.661667 0.00742973 -0.749761)
(0 1 -0)
(-0.58373 0.00726799 -0.811916)
(0 1 -0)
(-0.499988 0.007271 -0.866002)
(0 1 -0)
(-0.411275 0.00719403 -0.911483)
(0 1 0)
(-0.318481 0.00698561 -0.947904)
(0 1 0)
(-0.222515 0.0071549 -0.974903)
(0 1 0)
(-0.124341 0.0078593 -0.992208)
(0 1 0)
(-0.124341 -0.00714524 -0.992214)
(0 -1 0)
(-0.222516 -0.00690056 -0.974905)
(0 -1 0)
(-0.31848 -0.00716534 -0.947902)
(0 -1 0)
(-0.411275 -0.00726163 -0.911482)
(0 -1 0)
(-0.499987 -0.00748728 -0.866001)
(0 -1 0)
(-0.58373 -0.00724773 -0.811916)
(0 -1 0)
(-0.661667 -0.00743966 -0.749761)
(0 -1 0)
(-0.733033 -0.0071072 -0.680156)
(0 -1 0)
(-0.797111 -0.00736832 -0.603788)
(0 -1 0)
(-0.853267 -0.00740228 -0.521421)
(0 -1 0)
(-0.900946 -0.00711316 -0.433873)
(0 -1 0)
(-0.939666 -0.00744267 -0.342012)
(0 -1 0)
(-0.969053 -0.00704301 -0.246752)
(0 -1 0)
(-0.988804 -0.00738913 -0.149037)
(0 -1 0)
(-0.998729 -0.00748357 -0.0498452)
(0 -1 0)
(-0.998731 -0.00720117 0.0498453)
(0 -1 -0)
(-0.988806 -0.00718082 0.149037)
(0 -1 -0)
(-0.969052 -0.00726301 0.246751)
(0 -1 -0)
(-0.939667 -0.00729168 0.342012)
(0 -1 -0)
(-0.900944 -0.00741487 0.433872)
(0 -1 -0)
(-0.853268 -0.00720054 0.521422)
(0 -1 -0)
(-0.797111 -0.00731914 0.603788)
(0 -1 -0)
(-0.733031 -0.00743291 0.680155)
(0 -1 -0)
(-0.661667 -0.00739984 0.749761)
(0 -1 -0)
(-0.58373 -0.00721947 0.811916)
(0 -1 -0)
(-0.499988 -0.00718386 0.866003)
(0 -1 0)
(-0.411275 -0.00728012 0.911482)
(0 -1 0)
(-0.31848 -0.00727213 0.947902)
(0 -1 0)
(-0.222515 -0.00713185 0.974903)
(0 -1 0)
(-0.124342 -0.00698168 0.992215)
(0 -1 0)
(-0.173643 0.00734324 0.984781)
(-0 1 0)
(-0.270833 0.00722027 0.962599)
(-0 1 0)
(-0.365331 0.00728789 0.930849)
(-0 1 0)
(-0.456198 0.00723478 0.889849)
(-0 1 0)
(-0.54253 0.00742219 0.840004)
(-0 1 0)
(-0.623473 0.00751514 0.781809)
(-0 1 0)
(-0.69822 0.00723422 0.715847)
(-0 1 0)
(-0.766023 0.00731064 0.642771)
(-0 1 0)
(-0.826217 0.00745536 0.563303)
(-0 1 0)
(-0.878198 0.00720615 0.478242)
(0 1 0)
(-0.921452 0.00736456 0.388422)
(0 1 0)
(-0.955547 0.00728321 0.294748)
(0 1 0)
(-0.980145 0.00749629 0.198141)
(0 1 0)
(-0.995004 0.00738544 0.0995654)
(0 1 0)
(-0.999972 0.00746649 0)
(0 1 0)
(-0.995004 0.00727342 -0.0995654)
(0 1 -0)
(-0.980147 0.00721485 -0.198141)
(0 1 -0)
(-0.955548 0.00720036 -0.294748)
(0 1 -0)
(-0.921453 0.0072875 -0.388422)
(0 1 -0)
(-0.878199 0.00704863 -0.478243)
(0 1 -0)
(-0.826217 0.00740962 -0.563304)
(0 1 -0)
(-0.766022 0.0074291 -0.642771)
(0 1 -0)
(-0.698219 0.00731201 -0.715847)
(0 1 -0)
(-0.623474 0.0072688 -0.78181)
(0 1 -0)
(-0.54253 0.00742237 -0.840004)
(0 1 -0)
(-0.456198 0.00720845 -0.889849)
(0 1 0)
(-0.36533 0.00731109 -0.930849)
(0 1 0)
(-0.270833 0.00699786 -0.962601)
(0 1 0)
(-0.173643 0.00758586 -0.984779)
(0 1 0)
(-0.0747277 0.0073545 -0.997177)
(0 1 0)
(0 -1 0)
(0.0747279 -0.00697518 -0.99718)
(0 -1 0)
(0.173644 -0.00721557 -0.984782)
(0 -1 0)
(0.270833 -0.00726625 -0.962599)
(0 -1 0)
(0.36533 -0.00736752 -0.930849)
(0 -1 0)
(0.456198 -0.00745186 -0.889847)
(0 -1 0)
(0.542531 -0.00718552 -0.840005)
(0 -1 0)
(0.623474 -0.00725744 -0.781811)
(0 -1 0)
(0.698219 -0.00747337 -0.715846)
(0 -1 0)
(0.766022 -0.00744534 -0.642771)
(0 -1 0)
(0.826218 -0.00718172 -0.563304)
(0 -1 0)
(0.878198 -0.00734737 -0.478242)
(0 -1 0)
(0.921453 -0.00726271 -0.388422)
(0 -1 0)
(0.955547 -0.007276 -0.294748)
(0 -1 0)
(0.980146 -0.00732099 -0.198141)
(0 -1 0)
(0.995004 -0.00731166 -0.0995654)
(0 -1 0)
(0.999974 -0.00726942 0)
(0 -1 0)
(0.995004 -0.00726416 0.0995654)
(0 -1 0)
(0.980146 -0.00731817 0.198141)
(0 -1 0)
(0.955547 -0.00728142 0.294748)
(0 -1 0)
(0.921453 -0.00728819 0.388422)
(0 -1 0)
(0.878198 -0.00727479 0.478242)
(-0 -1 0)
(0.826217 -0.00741235 0.563303)
(-0 -1 0)
(0.766022 -0.00747681 0.642771)
(-0 -1 0)
(0.69822 -0.00727786 0.715847)
(-0 -1 0)
(0.623474 -0.00729518 0.78181)
(-0 -1 0)
(0.54253 -0.00746832 0.840003)
(-0 -1 0)
(0.456198 -0.00737872 0.889848)
(-0 -1 0)
(0.365331 -0.00722494 0.93085)
(-0 -1 0)
(0.270833 -0.0073163 0.962599)
(-0 -1 0)
(0.173644 -0.00671757 0.984786)
(-0 -1 0)
(0.0747282 -0.0064565 0.997183)
(-0 -1 0)
(0.0249298 -0 0.999689)
(0 -1 0)
(0.0249298 0 -0.999689)
(0 -1 0)
(0.124342 -0.0070166 -0.992215)
(0 -1 0)
(0.222515 -0.00730429 -0.974902)
(0 -1 0)
(0.31848 -0.00722402 -0.947902)
(0 -1 0)
(0.411275 -0.007269 -0.911482)
(0 -1 0)
(0.499988 -0.00719204 -0.866002)
(0 -1 0)
(0.583729 -0.00741406 -0.811915)
(0 -1 0)
(0.661667 -0.00731285 -0.749762)
(0 -1 0)
(0.733032 -0.00730939 -0.680155)
(0 -1 0)
(0.797112 -0.00717255 -0.603789)
(0 -1 0)
(0.853268 -0.0072325 -0.521422)
(0 -1 0)
(0.900946 -0.00719775 -0.433872)
(0 -1 0)
(0.939667 -0.00727842 -0.342012)
(0 -1 0)
(0.969051 -0.00731929 -0.246751)
(0 -1 0)
(0.988803 -0.00748267 -0.149037)
(0 -1 0)
(0.998731 -0.00726827 -0.0498453)
(0 -1 0)
(0.998731 -0.00724228 0.0498453)
(0 -1 0)
(0.988805 -0.00729453 0.149037)
(0 -1 0)
(0.969052 -0.0072796 0.246751)
(0 -1 0)
(0.939666 -0.00744729 0.342012)
(0 -1 0)
(0.900945 -0.00728166 0.433872)
(-0 -1 0)
(0.853267 -0.00741439 0.521421)
(-0 -1 0)
(0.797111 -0.00729238 0.603788)
(-0 -1 0)
(0.733032 -0.00726833 0.680155)
(-0 -1 0)
(0.661667 -0.00727331 0.749762)
(-0 -1 0)
(0.583729 -0.00752448 0.811914)
(-0 -1 0)
(0.499987 -0.00737529 0.866001)
(-0 -1 0)
(0.411275 -0.00725066 0.911482)
(-0 -1 0)
(0.31848 -0.00741597 0.947901)
(-0 -1 0)
(0.222515 -0.00719853 0.974903)
(-0 -1 0)
(0.124342 -0.00655846 0.992218)
(0 1 0)
(0.0747277 0.0074657 0.997176)
(0 1 0)
(0.173643 0.00753081 0.98478)
(0 1 0)
(0.270832 0.00775691 0.962595)
(0 1 0)
(0.36533 0.00738292 0.930849)
(0 1 0)
(0.456198 0.00718959 0.889849)
(0 1 0)
(0.54253 0.00737271 0.840004)
(0 1 0)
(0.623474 0.0072656 0.78181)
(0 1 0)
(0.698219 0.00747219 0.715846)
(0 1 0)
(0.766023 0.00724751 0.642772)
(0 1 0)
(0.826216 0.0074638 0.563303)
(0 1 0)
(0.878197 0.00741858 0.478241)
(0 1 0)
(0.921453 0.00727462 0.388422)
(0 1 0)
(0.955546 0.00742016 0.294747)
(0 1 0)
(0.980147 0.0072468 0.198141)
(0 1 0)
(0.995006 0.00710534 0.0995656)
(0 1 0)
(0.999972 0.00742839 -0)
(0 1 0)
(0.995003 0.00747967 -0.0995653)
(0 1 0)
(0.980146 0.00733383 -0.198141)
(0 1 0)
(0.955547 0.00728281 -0.294748)
(0 1 0)
(0.921452 0.00742305 -0.388422)
(0 1 0)
(0.878197 0.00735311 -0.478242)
(0 1 0)
(0.826217 0.00734517 -0.563304)
(0 1 0)
(0.766023 0.00739718 -0.642771)
(0 1 0)
(0.698219 0.00735677 -0.715846)
(0 1 0)
(0.623473 0.00741555 -0.78181)
(0 1 0)
(0.542531 0.00714508 -0.840005)
(0 1 0)
(0.456198 0.00724301 -0.889849)
(0 1 0)
(0.36533 0.00733335 -0.930849)
(0 1 0)
(0.270833 0.00736067 -0.962598)
(0 1 0)
(0.173643 0.00728842 -0.984782)
(0 1 0)
(0.0747283 0.00630837 -0.997184)
(0 1 0)
(0.0249298 2.96745e-16 -0.999689)
(0 1 0)
(0.0249294 0.00594059 0.999672)
(0 1 0)
(0.124341 0.00766824 0.99221)
(0 1 0)
(0.222514 0.00784752 0.974898)
(0 1 0)
(0.318479 0.00755663 0.9479)
(0 1 0)
(0.411276 0.00705336 0.911484)
(0 1 0)
(0.499988 0.00726153 0.866002)
(0 1 0)
(0.583729 0.00731992 0.811915)
(0 1 0)
(0.661667 0.00730324 0.749762)
(0 1 0)
(0.733032 0.00725157 0.680155)
(0 1 0)
(0.797111 0.00729138 0.603788)
(0 1 0)
(0.853267 0.00739699 0.521422)
(0 1 0)
(0.900945 0.00726203 0.433872)
(0 1 0)
(0.939666 0.00743192 0.342012)
(0 1 0)
(0.969051 0.00730817 0.246751)
(0 1 0)
(0.988805 0.00722869 0.149037)
(0 1 0)
(0.998731 0.00724054 0.0498453)
(0 1 0)
(0.99873 0.00732819 -0.0498453)